/*--------------------------------*- C++ -*----------------------------------*\
| =========                 |                                                 |
| \\      /  F ield         | OpenFOAM: The Open Source CFD Toolbox           |
|  \\    /   O peration     | Version:  1.5                                   |
|   \\  /    A nd           | Web:      http://www.OpenFOAM.org               |
|    \\/     M anipulation  |                                                 |
\*---------------------------------------------------------------------------*/
FoamFile
{
    version     2.0;
    format      ascii;
    class       dictionary;
    object      multiphaseTransportProperties;
}
// * * * * * * * * * * * * * * * * * * * * * * * * * * * * * * * * * * * * * //

dispersedPhases 2;

dragForce	SchillerNaumann;
wallLubricationForce	noWallLubricationForce;
liftForce	noLiftForce;
virtualMassForce	noVirtualMassForce;

continuousPhase
{
    // Water
    rho             rho [1 -3 0 0 0 0 0] 997.7;
    mu		    mu [1 -1 -1 0 0 0 0] 1e-3;
}

dispersedPhase
{
    // Toluene
    rho1            rho1 [1 -3 0 0 0 0 0] 865.6;
    mu1             mu1 [1 -1 -1 0 0 0 0] 0.59e-3;
    sigma1	    sigma1 [1 0 -2 0 0 0 0] 36.1e-3;
    rho2            rho2 [1 -3 0 0 0 0 0] 865.6;
    mu2             mu2 [1 -1 -1 0 0 0 0] 0.59e-3;
    sigma2	    sigma2 [1 0 -2 0 0 0 0] 36.1e-3;
}

transportCoefficients
{
    Cvm             Cvm [0 0 0 0 0 0 0] 0;
    Cl              Cl [0 0 0 0 0 0 0] 0;
    Ct              Ct [0 0 0 0 0 0 0] 1;
}

wallLubricationParameters
{

	AntalParameters
	{
	    Cw1             Cw1 [0 0 0 0 0 0 0] -0.01;
	    Cw2             Cw2 [0 0 0 0 0 0 0] 0.05;
	}

	FrankParameters
	{
	    Cw1             Cw1 [0 0 0 0 0 0 0] 10.0;
	    Cw2             Cw2 [0 0 0 0 0 0 0] 6.8;
	    p               p [0 0 0 0 0 0 0] 1.7;
	}

}

// ************************************************************************* //
